Circuit: * C:\workspace\knowledge\TransmissionLine\model\reflectionCoef.asc

WARNING: Node N002 is floating.
WARNING: Node N001 is floating.

.OP point found by inspection.

Date: Fri Dec 02 19:34:55 2022
Total elapsed time: 0.049 seconds.

tnom = 27
temp = 27
method = modified trap
totiter = 2088
traniter = 2088
tranpoints = 1045
accept = 1045
rejected = 0
matrix size = 14
fillins = 14
solver = Normal
Matrix Compiler1: 1.39 KB object code size  0.2/0.2/[0.1]
Matrix Compiler2: 1.29 KB object code size  0.1/0.2/[0.1]

