Circuit: * C:\Users\fsc11\Documents\3_PERS_WORKSPACE\knowledge\PowerElectronics\sim\D_MOS_Parallel.asc

.OP point found by inspection.

Date: Mon Nov 28 09:45:04 2022
Total elapsed time: 0.045 seconds.

tnom = 27
temp = 27
method = modified trap
totiter = 2146
traniter = 2146
tranpoints = 1066
accept = 1057
rejected = 9
matrix size = 3
fillins = 0
solver = Normal
Matrix Compiler1: 50 bytes object code size  0.0/0.0/[0.0]
Matrix Compiler2:      15 opcodes  0.0/[0.0]/0.0

