Circuit: * C:\Users\fsc11\Documents\3_PERS_WORKSPACE\knowledge\PowerElectronics\sim\Draft1.asc

.OP point found by inspection.

Date: Mon Nov 28 10:30:46 2022
Total elapsed time: 0.088 seconds.

tnom = 27
temp = 27
method = modified trap
totiter = 2324
traniter = 2324
tranpoints = 1089
accept = 1075
rejected = 14
matrix size = 4
fillins = 0
solver = Normal
Matrix Compiler1: 118 bytes object code size  0.0/0.0/[0.0]
Matrix Compiler2: off  [0.0]/0.0/0.0

