Circuit: * C:\Users\fsc11\Documents\3_PERS_WORKSPACE\knowledge\PowerElectronics\sim\Draft2.asc

WARNING: Node N002 is floating.

.OP point found by inspection.

Date: Fri Dec 02 15:52:33 2022
Total elapsed time: 0.033 seconds.

tnom = 27
temp = 27
method = modified trap
totiter = 2088
traniter = 2088
tranpoints = 1045
accept = 1045
rejected = 0
matrix size = 9
fillins = 4
solver = Normal
Matrix Compiler1:      34 opcodes  0.1/[0.0]/0.1
Matrix Compiler2: off  [0.1]/0.1/0.1

