Circuit: * C:\Users\fsc11\Documents\3_PERS_WORKSPACE\knowledge\PowerElectronics\sim\nmos_caracteristic.asc

.step vgs=-2
.OP point found by inspection.
.step vgs=0

Date: Mon Nov 28 10:29:31 2022
Total elapsed time: 0.059 seconds.

tnom = 27
temp = 27
method = trap
totiter = 1204
traniter = 0
tranpoints = 0
accept = 0
rejected = 0
matrix size = 6
fillins = 0
solver = Normal
Matrix Compiler1: 146 bytes object code size  0.0/0.0/[0.0]
Matrix Compiler2:      32 opcodes  0.0/[0.0]/0.1

